5460037
  -OEChem-09052523273D

 66 67  0     1  0  0  0  0  0999 V2000
    0.6631    1.5407    0.5751 O   0  0  0  0  0  0  0  0  0  0  0  0
    2.5779    0.2107   -0.8452 O   0  0  0  0  0  0  0  0  0  0  0  0
    4.6565   -0.2565    0.1947 O   0  0  0  0  0  0  0  0  0  0  0  0
   -1.5890    1.3231   -0.1329 O   0  0  0  0  0  0  0  0  0  0  0  0
    1.4763    4.2286   -1.8129 O   0  0  0  0  0  0  0  0  0  0  0  0
   -0.2589    5.5336    0.0681 O   0  0  0  0  0  0  0  0  0  0  0  0
   -2.2324    3.7250    1.1678 O   0  0  0  0  0  0  0  0  0  0  0  0
    3.0320   -1.8570   -2.6872 O   0  0  0  0  0  0  0  0  0  0  0  0
    3.6069   -4.0871   -0.9346 O   0  0  0  0  0  0  0  0  0  0  0  0
    3.4899   -3.3432    1.8377 O   0  0  0  0  0  0  0  0  0  0  0  0
    4.9948    0.5475    2.7815 O   0  0  0  0  0  0  0  0  0  0  0  0
   -2.0137   -0.7508   -2.2113 O   0  0  0  0  0  0  0  0  0  0  0  0
   -2.2963   -2.8156   -0.2056 O   0  0  0  0  0  0  0  0  0  0  0  0
   -5.1229   -3.2064    0.4047 O   0  0  0  0  0  0  0  0  0  0  0  0
   -6.1253   -0.9144   -0.9688 O   0  0  0  0  0  0  0  0  0  0  0  0
   -7.8004   -1.0928    1.0915 O   0  0  0  0  0  0  0  0  0  0  0  0
    1.1695    2.1282   -0.6289 C   0  0  1  0  0  0  0  0  0  0  0  0
    1.1013    3.6600   -0.5605 C   0  0  2  0  0  0  0  0  0  0  0  0
   -0.3143    4.1363   -0.2286 C   0  0  1  0  0  0  0  0  0  0  0  0
   -0.8615    3.3892    0.9859 C   0  0  2  0  0  0  0  0  0  0  0  0
   -0.7012    1.8754    0.8374 C   0  0  2  0  0  0  0  0  0  0  0  0
    3.8644   -1.7685   -1.5362 C   0  0  1  0  0  0  0  0  0  0  0  0
    3.8863   -0.3338   -1.0065 C   0  0  1  0  0  0  0  0  0  0  0  0
    3.3711   -2.7531   -0.4779 C   0  0  2  0  0  0  0  0  0  0  0  0
    4.1288   -2.5548    0.8363 C   0  0  1  0  0  0  0  0  0  0  0  0
    2.6002    1.6256   -0.8024 C   0  0  0  0  0  0  0  0  0  0  0  0
    4.1440   -1.0772    1.2506 C   0  0  1  0  0  0  0  0  0  0  0  0
    5.0259   -0.8336    2.4723 C   0  0  0  0  0  0  0  0  0  0  0  0
   -1.7607   -0.0787    0.0577 C   0  0  0  0  0  0  0  0  0  0  0  0
   -2.7434   -0.6009   -0.9849 C   0  0  2  0  0  0  0  0  0  0  0  0
   -3.3624   -1.9622   -0.6349 C   0  0  2  0  0  0  0  0  0  0  0  0
   -4.4714   -1.9305    0.4312 C   0  0  1  0  0  0  0  0  0  0  0  0
   -5.5173   -0.8136    0.3144 C   0  0  2  0  0  0  0  0  0  0  0  0
   -6.6179   -0.8932    1.3522 C   0  0  0  0  0  0  0  0  0  0  0  0
    0.5787    1.7513   -1.4744 H   0  0  0  0  0  0  0  0  0  0  0  0
    1.8031    4.0381    0.1929 H   0  0  0  0  0  0  0  0  0  0  0  0
   -0.9841    4.0302   -1.0897 H   0  0  0  0  0  0  0  0  0  0  0  0
   -0.3208    3.7187    1.8826 H   0  0  0  0  0  0  0  0  0  0  0  0
   -0.9551    1.4409    1.8130 H   0  0  0  0  0  0  0  0  0  0  0  0
    4.8799   -2.0511   -1.8427 H   0  0  0  0  0  0  0  0  0  0  0  0
    4.4095    0.2673   -1.7615 H   0  0  0  0  0  0  0  0  0  0  0  0
    2.2881   -2.6637   -0.3327 H   0  0  0  0  0  0  0  0  0  0  0  0
    5.1541   -2.9300    0.7305 H   0  0  0  0  0  0  0  0  0  0  0  0
    3.0302    2.0228   -1.7288 H   0  0  0  0  0  0  0  0  0  0  0  0
    3.2143    1.9482    0.0470 H   0  0  0  0  0  0  0  0  0  0  0  0
    3.1305   -0.7332    1.4967 H   0  0  0  0  0  0  0  0  0  0  0  0
    4.6718   -1.3990    3.3396 H   0  0  0  0  0  0  0  0  0  0  0  0
    6.0658   -1.1055    2.2625 H   0  0  0  0  0  0  0  0  0  0  0  0
   -2.1637   -0.2435    1.0630 H   0  0  0  0  0  0  0  0  0  0  0  0
   -0.7883   -0.5769   -0.0333 H   0  0  0  0  0  0  0  0  0  0  0  0
    0.8825    3.8707   -2.4948 H   0  0  0  0  0  0  0  0  0  0  0  0
    0.3181    5.6567    0.8411 H   0  0  0  0  0  0  0  0  0  0  0  0
   -3.5200    0.1386   -1.2007 H   0  0  0  0  0  0  0  0  0  0  0  0
   -2.2879    4.6926    1.2480 H   0  0  0  0  0  0  0  0  0  0  0  0
    3.0398   -2.7835   -2.9826 H   0  0  0  0  0  0  0  0  0  0  0  0
    4.5615   -4.1907   -1.0877 H   0  0  0  0  0  0  0  0  0  0  0  0
    2.5908   -2.9952    1.9652 H   0  0  0  0  0  0  0  0  0  0  0  0
   -3.7631   -2.4236   -1.5468 H   0  0  0  0  0  0  0  0  0  0  0  0
   -4.0007   -1.8647    1.4205 H   0  0  0  0  0  0  0  0  0  0  0  0
    5.5638    0.6806    3.5588 H   0  0  0  0  0  0  0  0  0  0  0  0
   -5.0619    0.1767    0.4055 H   0  0  0  0  0  0  0  0  0  0  0  0
   -1.6312    0.1165   -2.4301 H   0  0  0  0  0  0  0  0  0  0  0  0
   -1.6475   -2.8595   -0.9290 H   0  0  0  0  0  0  0  0  0  0  0  0
   -5.6955   -3.2660    1.1878 H   0  0  0  0  0  0  0  0  0  0  0  0
   -6.2891   -0.7529    2.3965 H   0  0  0  0  0  0  0  0  0  0  0  0
   -6.4720   -1.8182   -1.0650 H   0  0  0  0  0  0  0  0  0  0  0  0
  1 17  1  0  0  0  0
  1 21  1  0  0  0  0
  2 23  1  0  0  0  0
  2 26  1  0  0  0  0
  3 23  1  0  0  0  0
  3 27  1  0  0  0  0
  4 21  1  0  0  0  0
  4 29  1  0  0  0  0
  5 18  1  0  0  0  0
  5 51  1  0  0  0  0
  6 19  1  0  0  0  0
  6 52  1  0  0  0  0
  7 20  1  0  0  0  0
  7 54  1  0  0  0  0
  8 22  1  0  0  0  0
  8 55  1  0  0  0  0
  9 24  1  0  0  0  0
  9 56  1  0  0  0  0
 10 25  1  0  0  0  0
 10 57  1  0  0  0  0
 11 28  1  0  0  0  0
 11 60  1  0  0  0  0
 12 30  1  0  0  0  0
 12 62  1  0  0  0  0
 13 31  1  0  0  0  0
 13 63  1  0  0  0  0
 14 32  1  0  0  0  0
 14 64  1  0  0  0  0
 15 33  1  0  0  0  0
 15 66  1  0  0  0  0
 16 34  2  0  0  0  0
 17 18  1  0  0  0  0
 17 26  1  0  0  0  0
 17 35  1  0  0  0  0
 18 19  1  0  0  0  0
 18 36  1  0  0  0  0
 19 20  1  0  0  0  0
 19 37  1  0  0  0  0
 20 21  1  0  0  0  0
 20 38  1  0  0  0  0
 21 39  1  0  0  0  0
 22 23  1  0  0  0  0
 22 24  1  0  0  0  0
 22 40  1  0  0  0  0
 23 41  1  0  0  0  0
 24 25  1  0  0  0  0
 24 42  1  0  0  0  0
 25 27  1  0  0  0  0
 25 43  1  0  0  0  0
 26 44  1  0  0  0  0
 26 45  1  0  0  0  0
 27 28  1  0  0  0  0
 27 46  1  0  0  0  0
 28 47  1  0  0  0  0
 28 48  1  0  0  0  0
 29 30  1  0  0  0  0
 29 49  1  0  0  0  0
 29 50  1  0  0  0  0
 30 31  1  0  0  0  0
 30 53  1  0  0  0  0
 31 32  1  0  0  0  0
 31 58  1  0  0  0  0
 32 33  1  0  0  0  0
 32 59  1  0  0  0  0
 33 34  1  0  0  0  0
 33 61  1  0  0  0  0
 34 65  1  0  0  0  0
M  END
> <PUBCHEM_COMPOUND_CID>
5460037

> <PUBCHEM_CONFORMER_RMSD>
1.2

> <PUBCHEM_CONFORMER_DIVERSEORDER>
1
61
12
53
51
17
58
45
68
60
3
23
36
18
63
26
37
30
44
25
5
66
59
16
29
31
13
67
2
43
69
7
11
70
28
56
49
33
14
47
64
62
54
15
6
9
4
34
24
50
21
46
41
35
19
48
38
27
32
71
10
20
40
39
65
8
55
72
57
42
22
52

> <PUBCHEM_MMFF94_PARTIAL_CHARGES>
46
1 -0.56
10 -0.68
11 -0.68
12 -0.68
13 -0.68
14 -0.68
15 -0.68
16 -0.57
17 0.28
18 0.28
19 0.28
2 -0.56
20 0.28
21 0.56
22 0.28
23 0.56
24 0.28
25 0.28
26 0.28
27 0.28
28 0.28
29 0.28
3 -0.56
30 0.28
31 0.28
32 0.28
33 0.34
34 0.45
4 -0.56
5 -0.68
51 0.4
52 0.4
54 0.4
55 0.4
56 0.4
57 0.4
6 -0.68
60 0.4
62 0.4
63 0.4
64 0.4
65 0.06
66 0.4
7 -0.68
8 -0.68
9 -0.68

> <PUBCHEM_EFFECTIVE_ROTOR_COUNT>
13.4

> <PUBCHEM_PHARMACOPHORE_FEATURES>
29
1 1 acceptor
1 10 acceptor
1 10 donor
1 11 acceptor
1 11 donor
1 12 acceptor
1 12 donor
1 13 acceptor
1 13 donor
1 14 acceptor
1 14 donor
1 15 acceptor
1 15 donor
1 16 acceptor
1 2 acceptor
1 3 acceptor
1 4 acceptor
1 5 acceptor
1 5 donor
1 6 acceptor
1 6 donor
1 7 acceptor
1 7 donor
1 8 acceptor
1 8 donor
1 9 acceptor
1 9 donor
6 1 17 18 19 20 21 rings
6 3 22 23 24 25 27 rings

> <PUBCHEM_HEAVY_ATOM_COUNT>
34

> <PUBCHEM_ATOM_DEF_STEREO_COUNT>
14

> <PUBCHEM_ATOM_UDEF_STEREO_COUNT>
0

> <PUBCHEM_BOND_DEF_STEREO_COUNT>
0

> <PUBCHEM_BOND_UDEF_STEREO_COUNT>
0

> <PUBCHEM_ISOTOPIC_ATOM_COUNT>
0

> <PUBCHEM_COMPONENT_COUNT>
1

> <PUBCHEM_CACTVS_TAUTO_COUNT>
10

> <PUBCHEM_CONFORMER_ID>
0053504500000001

> <PUBCHEM_MMFF94_ENERGY>
89.3281

> <PUBCHEM_FEATURE_SELFOVERLAP>
147.362

> <PUBCHEM_SHAPE_FINGERPRINT>
10721379 63 17677908991977553148
12107183 9 18342189877728436921
12166972 35 16950555550698604546
12422481 6 17631185091194674677
12553582 1 18343299305686801630
12788726 201 18411710863147917042
13692114 37 17691406313627244801
13782708 43 17968100893411783755
13785724 45 18270701787147287295
14725015 67 18198066876032085518
1813 80 18411699885243053169
18603816 31 15365254199698776450
1979834 28 17918000485453929367
20775530 9 18410007728284267620
21421861 104 18341048635381248248
3004659 81 18334300902298313766
394071 54 18272373117471869395
4058900 60 17543359701102960885
463206 1 18264767838540110474
613672 6 18339626885115379734
79837 15 17694510243257106201

> <PUBCHEM_SHAPE_MULTIPOLES>
605.8
13.93
6.22
1.98
19.05
7.09
-0.28
-15.5
-5.53
-1.4
0.46
-2.58
-0.59
-0.42

> <PUBCHEM_SHAPE_SELFOVERLAP>
1227.669

> <PUBCHEM_SHAPE_VOLUME>
346.3

> <PUBCHEM_COORDINATE_TYPE>
2
5
10

$$$$
